electric-grid/physical/synthetic/synAustinTD/models/syn-austin-D_only-v03/P5U/base/opendss/Master.dss
Clear

New Circuit.Full_Network bus1=st_mat pu=1.0 basekV=230.0 R1=0.00001 X1=0.00001 R0=0.00001 X0=0.00001

Redirect p5uhs16_1247/Transformers.dss
Redirect p5uhs16_1247/p5uhs16_1247--p5udt385/Transformers.dss
Redirect p5uhs16_1247/p5uhs16_1247--p5udt746/Transformers.dss
Redirect p5uhs2_1247/Transformers.dss
Redirect p5uhs2_1247/p5uhs2_1247--p5udt2335/Transformers.dss
Redirect p5uhs2_1247/p5uhs2_1247--p5udt6874/Transformers.dss
Redirect p5uhs6_1247/Transformers.dss
Redirect p5uhs6_1247/p5uhs6_1247--p5udt7214/Transformers.dss
Redirect p5uhs6_1247/p5uhs6_1247--p5udt8728/Transformers.dss
Redirect p5uhs6_1247/p5uhs6_1247--p5udt3745/Transformers.dss
Redirect p5uhs1_1247/Transformers.dss
Redirect p5uhs1_1247/p5uhs1_1247--p5udt6125/Transformers.dss
Redirect p5uhs1_1247/p5uhs1_1247--p5udt6240/Transformers.dss
Redirect p5uhs1_1247/p5uhs1_1247--p5udt4629/Transformers.dss
Redirect p5uhs1_1247/p5uhs1_1247--p5udt4788/Transformers.dss
Redirect p5uhs5_1247/Transformers.dss
Redirect p5uhs5_1247/p5uhs5_1247--p5udt4497/Transformers.dss
Redirect p5uhs5_1247/p5uhs5_1247--p5udt2369/Transformers.dss
Redirect p5uhs5_1247/p5uhs5_1247--p5udt4880/Transformers.dss
Redirect p5uhs5_1247/p5uhs5_1247--p5udt3577/Transformers.dss
Redirect p5uhs3_1247/Transformers.dss
Redirect p5uhs3_1247/p5uhs3_1247--p5udt6366/Transformers.dss
Redirect p5uhs3_1247/p5uhs3_1247--p5udt2481/Transformers.dss
Redirect p5uhs3_1247/p5uhs3_1247--p5udt7358/Transformers.dss
Redirect p5uhs3_1247/p5uhs3_1247--p5udt7453/Transformers.dss
Redirect p5uhs3_1247/p5uhs3_1247--p5udt2480/Transformers.dss
Redirect p5uhs3_1247/p5uhs3_1247--p5udt6002/Transformers.dss
Redirect p5uhs9_1247/Transformers.dss
Redirect p5uhs9_1247/p5uhs9_1247--p5udt20856/Transformers.dss
Redirect p5uhs9_1247/p5uhs9_1247--p5udt22915/Transformers.dss
Redirect p5uhs9_1247/p5uhs9_1247--p5udt24963/Transformers.dss
Redirect p5uhs4_1247/p5uhs4_1247--p5udt4324/Transformers.dss
Redirect p5uhs4_1247/p5uhs4_1247--p5udt2507/Transformers.dss
Redirect p5uhs4_1247/p5uhs4_1247--p5udt7236/Transformers.dss
Redirect p5uhs4_1247/Transformers.dss
Redirect p5uhs0_1247/p5uhs0_1247--p5udt119/Transformers.dss
Redirect p5uhs0_1247/Transformers.dss
Redirect p5uhs0_1247/p5uhs0_1247--p5udt3610/Transformers.dss
Redirect p5uhs26_1247/Transformers.dss
Redirect p5uhs26_1247/p5uhs26_1247--p5udt22654/Transformers.dss
Redirect p5uhs26_1247/p5uhs26_1247--p5udt12371/Transformers.dss
Redirect p5uhs7_1247/Transformers.dss
Redirect p5uhs7_1247/p5uhs7_1247--p5udt2290/Transformers.dss
Redirect p5uhs7_1247/p5uhs7_1247--p5udt1899/Transformers.dss
Redirect p5uhs7_1247/p5uhs7_1247--p5udt2039/Transformers.dss
Redirect p5uhs25_1247/Transformers.dss
Redirect p5uhs25_1247/p5uhs25_1247--p5udt11223/Transformers.dss
Redirect p5uhs25_1247/p5uhs25_1247--p5udt33477/Transformers.dss
Redirect p5uhs25_1247/p5uhs25_1247--p5udt31077/Transformers.dss
Redirect p5uhs25_1247/p5uhs25_1247--p5udt26874/Transformers.dss
Redirect p5uhs19_1247/Transformers.dss
Redirect p5uhs19_1247/p5uhs19_1247--p5udt22111/Transformers.dss
Redirect p5uhs19_1247/p5uhs19_1247--p5udt17094/Transformers.dss
Redirect p5uhs19_1247/p5uhs19_1247--p5udt8885/Transformers.dss
Redirect p5uhs19_1247/p5uhs19_1247--p5udt30268/Transformers.dss
Redirect p5uhs27_1247/Transformers.dss
Redirect p5uhs27_1247/p5uhs27_1247--p5udt21906/Transformers.dss
Redirect p5uhs27_1247/p5uhs27_1247--p5udt16841/Transformers.dss
Redirect p5uhs27_1247/p5uhs27_1247--p5udt26583/Transformers.dss
Redirect p5uhs27_1247/p5uhs27_1247--p5udt23432/Transformers.dss
Redirect p5uhs15_1247/Transformers.dss
Redirect p5uhs15_1247/p5uhs15_1247--p5udt31571/Transformers.dss
Redirect p5uhs15_1247/p5uhs15_1247--p5udt17500/Transformers.dss
Redirect p5uhs11_1247/Transformers.dss
Redirect p5uhs11_1247/p5uhs11_1247--p5udt27144/Transformers.dss
Redirect p5uhs11_1247/p5uhs11_1247--p5udt19826/Transformers.dss
Redirect p5uhs11_1247/p5uhs11_1247--p5udt9720/Transformers.dss
Redirect p5uhs11_1247/p5uhs11_1247--p5udt24796/Transformers.dss
Redirect p5uhs11_1247/p5uhs11_1247--p5udt31727/Transformers.dss
Redirect p5uhs28_1247/Transformers.dss
Redirect p5uhs28_1247/p5uhs28_1247--p5udt31165/Transformers.dss
Redirect p5uhs28_1247/p5uhs28_1247--p5udt9102/Transformers.dss
Redirect p5uhs28_1247/p5uhs28_1247--p5udt12928/Transformers.dss
Redirect p5uhs28_1247/p5uhs28_1247--p5udt30878/Transformers.dss
Redirect p5uhs24_1247/p5uhs24_1247--p5udt29597/Transformers.dss
Redirect p5uhs24_1247/p5uhs24_1247--p5udt18206/Transformers.dss
Redirect p5uhs24_1247/p5uhs24_1247--p5udt16214/Transformers.dss
Redirect p5uhs24_1247/Transformers.dss
Redirect p5uhs13_1247/Transformers.dss
Redirect p5uhs13_1247/p5uhs13_1247--p5udt27754/Transformers.dss
Redirect p5uhs10_1247/Transformers.dss
Redirect p5uhs10_1247/p5uhs10_1247--p5udt14571/Transformers.dss
Redirect p5uhs17_1247/Transformers.dss
Redirect p5uhs17_1247/p5uhs17_1247--p5udt8754/Transformers.dss
Redirect p5uhs17_1247/p5uhs17_1247--p5udt16311/Transformers.dss
Redirect p5uhs17_1247/p5uhs17_1247--p5udt20156/Transformers.dss
Redirect p5uhs17_1247/p5uhs17_1247--p5udt28507/Transformers.dss
Redirect p5uhs14_1247/Transformers.dss
Redirect p5uhs14_1247/p5uhs14_1247--p5udt30754/Transformers.dss
Redirect p5uhs14_1247/p5uhs14_1247--p5udt12053/Transformers.dss
Redirect p5uhs18_1247/p5uhs18_1247--p5udt13853/Transformers.dss
Redirect p5uhs18_1247/p5uhs18_1247--p5udt9682/Transformers.dss
Redirect p5uhs18_1247/p5uhs18_1247--p5udt29300/Transformers.dss
Redirect p5uhs18_1247/Transformers.dss
Redirect p5uhs12_1247/p5uhs12_1247--p5udt23739/Transformers.dss
Redirect p5uhs12_1247/p5uhs12_1247--p5udt10697/Transformers.dss
Redirect p5uhs12_1247/p5uhs12_1247--p5udt26455/Transformers.dss
Redirect p5uhs12_1247/Transformers.dss
Redirect p5uhs20_1247/p5uhs20_1247--p5udt22271/Transformers.dss
Redirect p5uhs20_1247/Transformers.dss
Redirect p5uhs20_1247/p5uhs20_1247--p5udt30630/Transformers.dss
Redirect p5uhs21_1247/Transformers.dss
Redirect p5uhs21_1247/p5uhs21_1247--p5udt27230/Transformers.dss
Redirect p5uhs21_1247/p5uhs21_1247--p5udt24017/Transformers.dss
Redirect p5uhs21_1247/p5uhs21_1247--p5udt30121/Transformers.dss
Redirect p5uhs21_1247/p5uhs21_1247--p5udt26112/Transformers.dss
Redirect p5uhs29_1247/Transformers.dss
Redirect p5uhs29_1247/p5uhs29_1247--p5udt20500/Transformers.dss
Redirect p5uhs29_1247/p5uhs29_1247--p5udt31103/Transformers.dss
Redirect p5uhs8_1247/Transformers.dss
Redirect p5uhs8_1247/p5uhs8_1247--p5udt8308/Transformers.dss
Redirect p5uhs8_1247/p5uhs8_1247--p5udt24709/Transformers.dss
Redirect p5uhs8_1247/p5uhs8_1247--p5udt31669/Transformers.dss
Redirect p5uhs23_1247/Transformers.dss
Redirect p5uhs23_1247/p5uhs23_1247--p5udt18043/Transformers.dss
Redirect p5uhs23_1247/p5uhs23_1247--p5udt27071/Transformers.dss
Redirect p5uhs23_1247/p5uhs23_1247--p5udt23560/Transformers.dss
Redirect p5uhs22_1247/Transformers.dss
Redirect p5uhs22_1247/p5uhs22_1247--p5udt24944/Transformers.dss
Redirect p5uhs22_1247/p5uhs22_1247--p5udt12342/Transformers.dss
Redirect p5uhs22_1247/p5uhs22_1247--p5udt18713/Transformers.dss
Redirect p5uhs22_1247/p5uhs22_1247--p5udt12343/Transformers.dss
Redirect p5uhs30_1247/Transformers.dss
Redirect p5uhs30_1247/p5uhs30_1247--p5udt30417/Transformers.dss
Redirect p5uhs30_1247/p5uhs30_1247--p5udt32093/Transformers.dss
Redirect subtransmission/Transformers.dss
Redirect p5uhs16_1247/Regulators.dss
Redirect p5uhs0_1247/Regulators.dss
Redirect p5uhs2_1247/Regulators.dss
Redirect p5uhs6_1247/Regulators.dss
Redirect p5uhs1_1247/Regulators.dss
Redirect p5uhs5_1247/Regulators.dss
Redirect p5uhs3_1247/Regulators.dss
Redirect p5uhs9_1247/Regulators.dss
Redirect p5uhs4_1247/Regulators.dss
Redirect p5uhs26_1247/Regulators.dss
Redirect p5uhs7_1247/Regulators.dss
Redirect p5uhs25_1247/Regulators.dss
Redirect p5uhs19_1247/Regulators.dss
Redirect p5uhs27_1247/Regulators.dss
Redirect p5uhs15_1247/Regulators.dss
Redirect p5uhs11_1247/Regulators.dss
Redirect p5uhs28_1247/Regulators.dss
Redirect p5uhs24_1247/Regulators.dss
Redirect p5uhs13_1247/Regulators.dss
Redirect p5uhs10_1247/Regulators.dss
Redirect p5uhs17_1247/Regulators.dss
Redirect p5uhs14_1247/Regulators.dss
Redirect p5uhs18_1247/Regulators.dss
Redirect p5uhs12_1247/Regulators.dss
Redirect p5uhs20_1247/Regulators.dss
Redirect p5uhs21_1247/Regulators.dss
Redirect p5uhs29_1247/Regulators.dss
Redirect p5uhs8_1247/Regulators.dss
Redirect p5uhs23_1247/Regulators.dss
Redirect p5uhs22_1247/Regulators.dss
Redirect p5uhs30_1247/Regulators.dss
Redirect p5uhs16_1247/p5uhs16_1247--p5udt385/Loads.dss
Redirect p5uhs16_1247/p5uhs16_1247--p5udt746/Loads.dss
Redirect p5uhs2_1247/p5uhs2_1247--p5udt2335/Loads.dss
Redirect p5uhs2_1247/p5uhs2_1247--p5udt6874/Loads.dss
Redirect p5uhs6_1247/p5uhs6_1247--p5udt7214/Loads.dss
Redirect p5uhs6_1247/p5uhs6_1247--p5udt8728/Loads.dss
Redirect p5uhs6_1247/p5uhs6_1247--p5udt3745/Loads.dss
Redirect p5uhs1_1247/p5uhs1_1247--p5udt6125/Loads.dss
Redirect p5uhs1_1247/p5uhs1_1247--p5udt4788/Loads.dss
Redirect p5uhs1_1247/p5uhs1_1247--p5udt6240/Loads.dss
Redirect p5uhs1_1247/p5uhs1_1247--p5udt4629/Loads.dss
Redirect p5uhs5_1247/p5uhs5_1247--p5udt4497/Loads.dss
Redirect p5uhs5_1247/p5uhs5_1247--p5udt2369/Loads.dss
Redirect p5uhs5_1247/p5uhs5_1247--p5udt4880/Loads.dss
Redirect p5uhs5_1247/p5uhs5_1247--p5udt3577/Loads.dss
Redirect p5uhs3_1247/p5uhs3_1247--p5udt6366/Loads.dss
Redirect p5uhs3_1247/p5uhs3_1247--p5udt2481/Loads.dss
Redirect p5uhs3_1247/p5uhs3_1247--p5udt7358/Loads.dss
Redirect p5uhs3_1247/p5uhs3_1247--p5udt7453/Loads.dss
Redirect p5uhs3_1247/p5uhs3_1247--p5udt2480/Loads.dss
Redirect p5uhs3_1247/p5uhs3_1247--p5udt6002/Loads.dss
Redirect p5uhs9_1247/p5uhs9_1247--p5udt20856/Loads.dss
Redirect p5uhs9_1247/p5uhs9_1247--p5udt22915/Loads.dss
Redirect p5uhs9_1247/p5uhs9_1247--p5udt24963/Loads.dss
Redirect p5uhs4_1247/p5uhs4_1247--p5udt4324/Loads.dss
Redirect p5uhs4_1247/p5uhs4_1247--p5udt2507/Loads.dss
Redirect p5uhs4_1247/p5uhs4_1247--p5udt7236/Loads.dss
Redirect p5uhs0_1247/p5uhs0_1247--p5udt119/Loads.dss
Redirect p5uhs0_1247/p5uhs0_1247--p5udt3610/Loads.dss
Redirect p5uhs26_1247/p5uhs26_1247--p5udt22654/Loads.dss
Redirect p5uhs26_1247/p5uhs26_1247--p5udt12371/Loads.dss
Redirect p5uhs7_1247/p5uhs7_1247--p5udt2290/Loads.dss
Redirect p5uhs7_1247/p5uhs7_1247--p5udt1899/Loads.dss
Redirect p5uhs7_1247/p5uhs7_1247--p5udt2039/Loads.dss
Redirect p5uhs25_1247/p5uhs25_1247--p5udt31077/Loads.dss
Redirect p5uhs25_1247/p5uhs25_1247--p5udt26874/Loads.dss
Redirect p5uhs25_1247/p5uhs25_1247--p5udt33477/Loads.dss
Redirect p5uhs25_1247/p5uhs25_1247--p5udt11223/Loads.dss
Redirect p5uhs19_1247/p5uhs19_1247--p5udt22111/Loads.dss
Redirect p5uhs19_1247/p5uhs19_1247--p5udt17094/Loads.dss
Redirect p5uhs19_1247/p5uhs19_1247--p5udt8885/Loads.dss
Redirect p5uhs19_1247/p5uhs19_1247--p5udt30268/Loads.dss
Redirect p5uhs27_1247/p5uhs27_1247--p5udt16841/Loads.dss
Redirect p5uhs27_1247/p5uhs27_1247--p5udt26583/Loads.dss
Redirect p5uhs27_1247/p5uhs27_1247--p5udt21906/Loads.dss
Redirect p5uhs27_1247/p5uhs27_1247--p5udt23432/Loads.dss
Redirect p5uhs15_1247/p5uhs15_1247--p5udt31571/Loads.dss
Redirect p5uhs15_1247/p5uhs15_1247--p5udt17500/Loads.dss
Redirect p5uhs11_1247/p5uhs11_1247--p5udt27144/Loads.dss
Redirect p5uhs11_1247/p5uhs11_1247--p5udt19826/Loads.dss
Redirect p5uhs11_1247/p5uhs11_1247--p5udt9720/Loads.dss
Redirect p5uhs11_1247/p5uhs11_1247--p5udt24796/Loads.dss
Redirect p5uhs11_1247/p5uhs11_1247--p5udt31727/Loads.dss
Redirect p5uhs28_1247/p5uhs28_1247--p5udt31165/Loads.dss
Redirect p5uhs28_1247/p5uhs28_1247--p5udt12928/Loads.dss
Redirect p5uhs28_1247/p5uhs28_1247--p5udt30878/Loads.dss
Redirect p5uhs28_1247/p5uhs28_1247--p5udt9102/Loads.dss
Redirect p5uhs24_1247/p5uhs24_1247--p5udt29597/Loads.dss
Redirect p5uhs24_1247/p5uhs24_1247--p5udt18206/Loads.dss
Redirect p5uhs24_1247/p5uhs24_1247--p5udt16214/Loads.dss
Redirect p5uhs13_1247/p5uhs13_1247--p5udt27754/Loads.dss
Redirect p5uhs10_1247/p5uhs10_1247--p5udt14571/Loads.dss
Redirect p5uhs17_1247/p5uhs17_1247--p5udt28507/Loads.dss
Redirect p5uhs17_1247/p5uhs17_1247--p5udt16311/Loads.dss
Redirect p5uhs17_1247/p5uhs17_1247--p5udt8754/Loads.dss
Redirect p5uhs17_1247/p5uhs17_1247--p5udt20156/Loads.dss
Redirect p5uhs14_1247/p5uhs14_1247--p5udt30754/Loads.dss
Redirect p5uhs14_1247/p5uhs14_1247--p5udt12053/Loads.dss
Redirect p5uhs18_1247/p5uhs18_1247--p5udt13853/Loads.dss
Redirect p5uhs18_1247/p5uhs18_1247--p5udt9682/Loads.dss
Redirect p5uhs18_1247/p5uhs18_1247--p5udt29300/Loads.dss
Redirect p5uhs12_1247/p5uhs12_1247--p5udt23739/Loads.dss
Redirect p5uhs12_1247/p5uhs12_1247--p5udt10697/Loads.dss
Redirect p5uhs12_1247/p5uhs12_1247--p5udt26455/Loads.dss
Redirect p5uhs20_1247/p5uhs20_1247--p5udt22271/Loads.dss
Redirect p5uhs20_1247/p5uhs20_1247--p5udt30630/Loads.dss
Redirect p5uhs21_1247/p5uhs21_1247--p5udt30121/Loads.dss
Redirect p5uhs21_1247/p5uhs21_1247--p5udt24017/Loads.dss
Redirect p5uhs21_1247/p5uhs21_1247--p5udt27230/Loads.dss
Redirect p5uhs21_1247/p5uhs21_1247--p5udt26112/Loads.dss
Redirect p5uhs29_1247/p5uhs29_1247--p5udt20500/Loads.dss
Redirect p5uhs29_1247/p5uhs29_1247--p5udt31103/Loads.dss
Redirect p5uhs8_1247/p5uhs8_1247--p5udt8308/Loads.dss
Redirect p5uhs8_1247/p5uhs8_1247--p5udt24709/Loads.dss
Redirect p5uhs8_1247/p5uhs8_1247--p5udt31669/Loads.dss
Redirect p5uhs23_1247/p5uhs23_1247--p5udt18043/Loads.dss
Redirect p5uhs23_1247/p5uhs23_1247--p5udt27071/Loads.dss
Redirect p5uhs23_1247/p5uhs23_1247--p5udt23560/Loads.dss
Redirect p5uhs22_1247/p5uhs22_1247--p5udt12342/Loads.dss
Redirect p5uhs22_1247/p5uhs22_1247--p5udt18713/Loads.dss
Redirect p5uhs22_1247/p5uhs22_1247--p5udt24944/Loads.dss
Redirect p5uhs22_1247/p5uhs22_1247--p5udt12343/Loads.dss
Redirect p5uhs30_1247/p5uhs30_1247--p5udt30417/Loads.dss
Redirect p5uhs30_1247/p5uhs30_1247--p5udt32093/Loads.dss
Redirect p5uhs16_1247/LineCodes.dss
Redirect p5uhs16_1247/p5uhs16_1247--p5udt385/LineCodes.dss
Redirect p5uhs16_1247/p5uhs16_1247--p5udt746/LineCodes.dss
Redirect p5uhs2_1247/LineCodes.dss
Redirect p5uhs2_1247/p5uhs2_1247--p5udt2335/LineCodes.dss
Redirect p5uhs2_1247/p5uhs2_1247--p5udt6874/LineCodes.dss
Redirect p5uhs6_1247/LineCodes.dss
Redirect p5uhs6_1247/p5uhs6_1247--p5udt7214/LineCodes.dss
Redirect p5uhs6_1247/p5uhs6_1247--p5udt8728/LineCodes.dss
Redirect p5uhs6_1247/p5uhs6_1247--p5udt3745/LineCodes.dss
Redirect p5uhs1_1247/LineCodes.dss
Redirect p5uhs1_1247/p5uhs1_1247--p5udt6125/LineCodes.dss
Redirect p5uhs1_1247/p5uhs1_1247--p5udt6240/LineCodes.dss
Redirect p5uhs1_1247/p5uhs1_1247--p5udt4629/LineCodes.dss
Redirect p5uhs1_1247/p5uhs1_1247--p5udt4788/LineCodes.dss
Redirect p5uhs5_1247/LineCodes.dss
Redirect p5uhs5_1247/p5uhs5_1247--p5udt4497/LineCodes.dss
Redirect p5uhs5_1247/p5uhs5_1247--p5udt2369/LineCodes.dss
Redirect p5uhs5_1247/p5uhs5_1247--p5udt4880/LineCodes.dss
Redirect p5uhs5_1247/p5uhs5_1247--p5udt3577/LineCodes.dss
Redirect p5uhs3_1247/LineCodes.dss
Redirect p5uhs3_1247/p5uhs3_1247--p5udt6366/LineCodes.dss
Redirect p5uhs3_1247/p5uhs3_1247--p5udt2481/LineCodes.dss
Redirect p5uhs3_1247/p5uhs3_1247--p5udt7358/LineCodes.dss
Redirect p5uhs3_1247/p5uhs3_1247--p5udt7453/LineCodes.dss
Redirect p5uhs3_1247/p5uhs3_1247--p5udt2480/LineCodes.dss
Redirect p5uhs3_1247/p5uhs3_1247--p5udt6002/LineCodes.dss
Redirect p5uhs9_1247/LineCodes.dss
Redirect p5uhs9_1247/p5uhs9_1247--p5udt20856/LineCodes.dss
Redirect p5uhs9_1247/p5uhs9_1247--p5udt22915/LineCodes.dss
Redirect p5uhs9_1247/p5uhs9_1247--p5udt24963/LineCodes.dss
Redirect p5uhs4_1247/p5uhs4_1247--p5udt4324/LineCodes.dss
Redirect p5uhs4_1247/p5uhs4_1247--p5udt2507/LineCodes.dss
Redirect p5uhs4_1247/p5uhs4_1247--p5udt7236/LineCodes.dss
Redirect p5uhs4_1247/LineCodes.dss
Redirect p5uhs0_1247/p5uhs0_1247--p5udt119/LineCodes.dss
Redirect p5uhs0_1247/LineCodes.dss
Redirect p5uhs0_1247/p5uhs0_1247--p5udt3610/LineCodes.dss
Redirect p5uhs26_1247/LineCodes.dss
Redirect p5uhs26_1247/p5uhs26_1247--p5udt22654/LineCodes.dss
Redirect p5uhs26_1247/p5uhs26_1247--p5udt12371/LineCodes.dss
Redirect p5uhs7_1247/LineCodes.dss
Redirect p5uhs7_1247/p5uhs7_1247--p5udt2290/LineCodes.dss
Redirect p5uhs7_1247/p5uhs7_1247--p5udt1899/LineCodes.dss
Redirect p5uhs7_1247/p5uhs7_1247--p5udt2039/LineCodes.dss
Redirect p5uhs25_1247/LineCodes.dss
Redirect p5uhs25_1247/p5uhs25_1247--p5udt11223/LineCodes.dss
Redirect p5uhs25_1247/p5uhs25_1247--p5udt33477/LineCodes.dss
Redirect p5uhs25_1247/p5uhs25_1247--p5udt31077/LineCodes.dss
Redirect p5uhs25_1247/p5uhs25_1247--p5udt26874/LineCodes.dss
Redirect p5uhs19_1247/LineCodes.dss
Redirect p5uhs19_1247/p5uhs19_1247--p5udt22111/LineCodes.dss
Redirect p5uhs19_1247/p5uhs19_1247--p5udt17094/LineCodes.dss
Redirect p5uhs19_1247/p5uhs19_1247--p5udt8885/LineCodes.dss
Redirect p5uhs19_1247/p5uhs19_1247--p5udt30268/LineCodes.dss
Redirect p5uhs27_1247/LineCodes.dss
Redirect p5uhs27_1247/p5uhs27_1247--p5udt21906/LineCodes.dss
Redirect p5uhs27_1247/p5uhs27_1247--p5udt16841/LineCodes.dss
Redirect p5uhs27_1247/p5uhs27_1247--p5udt26583/LineCodes.dss
Redirect p5uhs27_1247/p5uhs27_1247--p5udt23432/LineCodes.dss
Redirect p5uhs15_1247/LineCodes.dss
Redirect p5uhs15_1247/p5uhs15_1247--p5udt31571/LineCodes.dss
Redirect p5uhs15_1247/p5uhs15_1247--p5udt17500/LineCodes.dss
Redirect p5uhs11_1247/LineCodes.dss
Redirect p5uhs11_1247/p5uhs11_1247--p5udt27144/LineCodes.dss
Redirect p5uhs11_1247/p5uhs11_1247--p5udt19826/LineCodes.dss
Redirect p5uhs11_1247/p5uhs11_1247--p5udt9720/LineCodes.dss
Redirect p5uhs11_1247/p5uhs11_1247--p5udt24796/LineCodes.dss
Redirect p5uhs11_1247/p5uhs11_1247--p5udt31727/LineCodes.dss
Redirect p5uhs28_1247/LineCodes.dss
Redirect p5uhs28_1247/p5uhs28_1247--p5udt31165/LineCodes.dss
Redirect p5uhs28_1247/p5uhs28_1247--p5udt9102/LineCodes.dss
Redirect p5uhs28_1247/p5uhs28_1247--p5udt12928/LineCodes.dss
Redirect p5uhs28_1247/p5uhs28_1247--p5udt30878/LineCodes.dss
Redirect p5uhs24_1247/p5uhs24_1247--p5udt29597/LineCodes.dss
Redirect p5uhs24_1247/p5uhs24_1247--p5udt18206/LineCodes.dss
Redirect p5uhs24_1247/p5uhs24_1247--p5udt16214/LineCodes.dss
Redirect p5uhs24_1247/LineCodes.dss
Redirect p5uhs13_1247/LineCodes.dss
Redirect p5uhs13_1247/p5uhs13_1247--p5udt27754/LineCodes.dss
Redirect p5uhs10_1247/LineCodes.dss
Redirect p5uhs10_1247/p5uhs10_1247--p5udt14571/LineCodes.dss
Redirect p5uhs17_1247/LineCodes.dss
Redirect p5uhs17_1247/p5uhs17_1247--p5udt8754/LineCodes.dss
Redirect p5uhs17_1247/p5uhs17_1247--p5udt16311/LineCodes.dss
Redirect p5uhs17_1247/p5uhs17_1247--p5udt20156/LineCodes.dss
Redirect p5uhs17_1247/p5uhs17_1247--p5udt28507/LineCodes.dss
Redirect p5uhs14_1247/LineCodes.dss
Redirect p5uhs14_1247/p5uhs14_1247--p5udt30754/LineCodes.dss
Redirect p5uhs14_1247/p5uhs14_1247--p5udt12053/LineCodes.dss
Redirect p5uhs18_1247/p5uhs18_1247--p5udt13853/LineCodes.dss
Redirect p5uhs18_1247/p5uhs18_1247--p5udt9682/LineCodes.dss
Redirect p5uhs18_1247/p5uhs18_1247--p5udt29300/LineCodes.dss
Redirect p5uhs18_1247/LineCodes.dss
Redirect p5uhs12_1247/p5uhs12_1247--p5udt23739/LineCodes.dss
Redirect p5uhs12_1247/p5uhs12_1247--p5udt10697/LineCodes.dss
Redirect p5uhs12_1247/p5uhs12_1247--p5udt26455/LineCodes.dss
Redirect p5uhs12_1247/LineCodes.dss
Redirect p5uhs20_1247/p5uhs20_1247--p5udt22271/LineCodes.dss
Redirect p5uhs20_1247/LineCodes.dss
Redirect p5uhs20_1247/p5uhs20_1247--p5udt30630/LineCodes.dss
Redirect p5uhs21_1247/LineCodes.dss
Redirect p5uhs21_1247/p5uhs21_1247--p5udt27230/LineCodes.dss
Redirect p5uhs21_1247/p5uhs21_1247--p5udt24017/LineCodes.dss
Redirect p5uhs21_1247/p5uhs21_1247--p5udt30121/LineCodes.dss
Redirect p5uhs21_1247/p5uhs21_1247--p5udt26112/LineCodes.dss
Redirect p5uhs29_1247/LineCodes.dss
Redirect p5uhs29_1247/p5uhs29_1247--p5udt20500/LineCodes.dss
Redirect p5uhs29_1247/p5uhs29_1247--p5udt31103/LineCodes.dss
Redirect p5uhs8_1247/LineCodes.dss
Redirect p5uhs8_1247/p5uhs8_1247--p5udt8308/LineCodes.dss
Redirect p5uhs8_1247/p5uhs8_1247--p5udt24709/LineCodes.dss
Redirect p5uhs8_1247/p5uhs8_1247--p5udt31669/LineCodes.dss
Redirect p5uhs23_1247/LineCodes.dss
Redirect p5uhs23_1247/p5uhs23_1247--p5udt18043/LineCodes.dss
Redirect p5uhs23_1247/p5uhs23_1247--p5udt27071/LineCodes.dss
Redirect p5uhs23_1247/p5uhs23_1247--p5udt23560/LineCodes.dss
Redirect p5uhs22_1247/LineCodes.dss
Redirect p5uhs22_1247/p5uhs22_1247--p5udt24944/LineCodes.dss
Redirect p5uhs22_1247/p5uhs22_1247--p5udt12342/LineCodes.dss
Redirect p5uhs22_1247/p5uhs22_1247--p5udt18713/LineCodes.dss
Redirect p5uhs22_1247/p5uhs22_1247--p5udt12343/LineCodes.dss
Redirect p5uhs30_1247/LineCodes.dss
Redirect p5uhs30_1247/p5uhs30_1247--p5udt30417/LineCodes.dss
Redirect p5uhs30_1247/p5uhs30_1247--p5udt32093/LineCodes.dss
Redirect subtransmission/LineCodes.dss
Redirect p5uhs16_1247/Lines.dss
Redirect p5uhs16_1247/p5uhs16_1247--p5udt385/Lines.dss
Redirect p5uhs16_1247/p5uhs16_1247--p5udt746/Lines.dss
Redirect p5uhs2_1247/Lines.dss
Redirect p5uhs2_1247/p5uhs2_1247--p5udt2335/Lines.dss
Redirect p5uhs2_1247/p5uhs2_1247--p5udt6874/Lines.dss
Redirect p5uhs6_1247/Lines.dss
Redirect p5uhs6_1247/p5uhs6_1247--p5udt7214/Lines.dss
Redirect p5uhs6_1247/p5uhs6_1247--p5udt8728/Lines.dss
Redirect p5uhs6_1247/p5uhs6_1247--p5udt3745/Lines.dss
Redirect p5uhs1_1247/Lines.dss
Redirect p5uhs1_1247/p5uhs1_1247--p5udt6125/Lines.dss
Redirect p5uhs1_1247/p5uhs1_1247--p5udt6240/Lines.dss
Redirect p5uhs1_1247/p5uhs1_1247--p5udt4629/Lines.dss
Redirect p5uhs1_1247/p5uhs1_1247--p5udt4788/Lines.dss
Redirect p5uhs5_1247/Lines.dss
Redirect p5uhs5_1247/p5uhs5_1247--p5udt4497/Lines.dss
Redirect p5uhs5_1247/p5uhs5_1247--p5udt2369/Lines.dss
Redirect p5uhs5_1247/p5uhs5_1247--p5udt4880/Lines.dss
Redirect p5uhs5_1247/p5uhs5_1247--p5udt3577/Lines.dss
Redirect p5uhs3_1247/Lines.dss
Redirect p5uhs3_1247/p5uhs3_1247--p5udt6366/Lines.dss
Redirect p5uhs3_1247/p5uhs3_1247--p5udt2481/Lines.dss
Redirect p5uhs3_1247/p5uhs3_1247--p5udt7358/Lines.dss
Redirect p5uhs3_1247/p5uhs3_1247--p5udt7453/Lines.dss
Redirect p5uhs3_1247/p5uhs3_1247--p5udt2480/Lines.dss
Redirect p5uhs3_1247/p5uhs3_1247--p5udt6002/Lines.dss
Redirect p5uhs9_1247/Lines.dss
Redirect p5uhs9_1247/p5uhs9_1247--p5udt20856/Lines.dss
Redirect p5uhs9_1247/p5uhs9_1247--p5udt22915/Lines.dss
Redirect p5uhs9_1247/p5uhs9_1247--p5udt24963/Lines.dss
Redirect p5uhs4_1247/p5uhs4_1247--p5udt4324/Lines.dss
Redirect p5uhs4_1247/p5uhs4_1247--p5udt2507/Lines.dss
Redirect p5uhs4_1247/p5uhs4_1247--p5udt7236/Lines.dss
Redirect p5uhs4_1247/Lines.dss
Redirect p5uhs0_1247/p5uhs0_1247--p5udt119/Lines.dss
Redirect p5uhs0_1247/Lines.dss
Redirect p5uhs0_1247/p5uhs0_1247--p5udt3610/Lines.dss
Redirect p5uhs26_1247/Lines.dss
Redirect p5uhs26_1247/p5uhs26_1247--p5udt22654/Lines.dss
Redirect p5uhs26_1247/p5uhs26_1247--p5udt12371/Lines.dss
Redirect p5uhs7_1247/Lines.dss
Redirect p5uhs7_1247/p5uhs7_1247--p5udt2290/Lines.dss
Redirect p5uhs7_1247/p5uhs7_1247--p5udt1899/Lines.dss
Redirect p5uhs7_1247/p5uhs7_1247--p5udt2039/Lines.dss
Redirect p5uhs25_1247/Lines.dss
Redirect p5uhs25_1247/p5uhs25_1247--p5udt11223/Lines.dss
Redirect p5uhs25_1247/p5uhs25_1247--p5udt33477/Lines.dss
Redirect p5uhs25_1247/p5uhs25_1247--p5udt31077/Lines.dss
Redirect p5uhs25_1247/p5uhs25_1247--p5udt26874/Lines.dss
Redirect p5uhs19_1247/Lines.dss
Redirect p5uhs19_1247/p5uhs19_1247--p5udt22111/Lines.dss
Redirect p5uhs19_1247/p5uhs19_1247--p5udt17094/Lines.dss
Redirect p5uhs19_1247/p5uhs19_1247--p5udt8885/Lines.dss
Redirect p5uhs19_1247/p5uhs19_1247--p5udt30268/Lines.dss
Redirect p5uhs27_1247/Lines.dss
Redirect p5uhs27_1247/p5uhs27_1247--p5udt21906/Lines.dss
Redirect p5uhs27_1247/p5uhs27_1247--p5udt16841/Lines.dss
Redirect p5uhs27_1247/p5uhs27_1247--p5udt26583/Lines.dss
Redirect p5uhs27_1247/p5uhs27_1247--p5udt23432/Lines.dss
Redirect p5uhs15_1247/Lines.dss
Redirect p5uhs15_1247/p5uhs15_1247--p5udt31571/Lines.dss
Redirect p5uhs15_1247/p5uhs15_1247--p5udt17500/Lines.dss
Redirect p5uhs11_1247/Lines.dss
Redirect p5uhs11_1247/p5uhs11_1247--p5udt27144/Lines.dss
Redirect p5uhs11_1247/p5uhs11_1247--p5udt19826/Lines.dss
Redirect p5uhs11_1247/p5uhs11_1247--p5udt9720/Lines.dss
Redirect p5uhs11_1247/p5uhs11_1247--p5udt24796/Lines.dss
Redirect p5uhs11_1247/p5uhs11_1247--p5udt31727/Lines.dss
Redirect p5uhs28_1247/Lines.dss
Redirect p5uhs28_1247/p5uhs28_1247--p5udt31165/Lines.dss
Redirect p5uhs28_1247/p5uhs28_1247--p5udt9102/Lines.dss
Redirect p5uhs28_1247/p5uhs28_1247--p5udt12928/Lines.dss
Redirect p5uhs28_1247/p5uhs28_1247--p5udt30878/Lines.dss
Redirect p5uhs24_1247/p5uhs24_1247--p5udt29597/Lines.dss
Redirect p5uhs24_1247/p5uhs24_1247--p5udt18206/Lines.dss
Redirect p5uhs24_1247/p5uhs24_1247--p5udt16214/Lines.dss
Redirect p5uhs24_1247/Lines.dss
Redirect p5uhs13_1247/Lines.dss
Redirect p5uhs13_1247/p5uhs13_1247--p5udt27754/Lines.dss
Redirect p5uhs10_1247/Lines.dss
Redirect p5uhs10_1247/p5uhs10_1247--p5udt14571/Lines.dss
Redirect p5uhs17_1247/Lines.dss
Redirect p5uhs17_1247/p5uhs17_1247--p5udt8754/Lines.dss
Redirect p5uhs17_1247/p5uhs17_1247--p5udt16311/Lines.dss
Redirect p5uhs17_1247/p5uhs17_1247--p5udt20156/Lines.dss
Redirect p5uhs17_1247/p5uhs17_1247--p5udt28507/Lines.dss
Redirect p5uhs14_1247/Lines.dss
Redirect p5uhs14_1247/p5uhs14_1247--p5udt30754/Lines.dss
Redirect p5uhs14_1247/p5uhs14_1247--p5udt12053/Lines.dss
Redirect p5uhs18_1247/p5uhs18_1247--p5udt13853/Lines.dss
Redirect p5uhs18_1247/p5uhs18_1247--p5udt9682/Lines.dss
Redirect p5uhs18_1247/p5uhs18_1247--p5udt29300/Lines.dss
Redirect p5uhs18_1247/Lines.dss
Redirect p5uhs12_1247/p5uhs12_1247--p5udt23739/Lines.dss
Redirect p5uhs12_1247/p5uhs12_1247--p5udt10697/Lines.dss
Redirect p5uhs12_1247/p5uhs12_1247--p5udt26455/Lines.dss
Redirect p5uhs12_1247/Lines.dss
Redirect p5uhs20_1247/p5uhs20_1247--p5udt22271/Lines.dss
Redirect p5uhs20_1247/Lines.dss
Redirect p5uhs20_1247/p5uhs20_1247--p5udt30630/Lines.dss
Redirect p5uhs21_1247/Lines.dss
Redirect p5uhs21_1247/p5uhs21_1247--p5udt27230/Lines.dss
Redirect p5uhs21_1247/p5uhs21_1247--p5udt24017/Lines.dss
Redirect p5uhs21_1247/p5uhs21_1247--p5udt30121/Lines.dss
Redirect p5uhs21_1247/p5uhs21_1247--p5udt26112/Lines.dss
Redirect p5uhs29_1247/Lines.dss
Redirect p5uhs29_1247/p5uhs29_1247--p5udt20500/Lines.dss
Redirect p5uhs29_1247/p5uhs29_1247--p5udt31103/Lines.dss
Redirect p5uhs8_1247/Lines.dss
Redirect p5uhs8_1247/p5uhs8_1247--p5udt8308/Lines.dss
Redirect p5uhs8_1247/p5uhs8_1247--p5udt24709/Lines.dss
Redirect p5uhs8_1247/p5uhs8_1247--p5udt31669/Lines.dss
Redirect p5uhs23_1247/Lines.dss
Redirect p5uhs23_1247/p5uhs23_1247--p5udt18043/Lines.dss
Redirect p5uhs23_1247/p5uhs23_1247--p5udt27071/Lines.dss
Redirect p5uhs23_1247/p5uhs23_1247--p5udt23560/Lines.dss
Redirect p5uhs22_1247/Lines.dss
Redirect p5uhs22_1247/p5uhs22_1247--p5udt24944/Lines.dss
Redirect p5uhs22_1247/p5uhs22_1247--p5udt12342/Lines.dss
Redirect p5uhs22_1247/p5uhs22_1247--p5udt18713/Lines.dss
Redirect p5uhs22_1247/p5uhs22_1247--p5udt12343/Lines.dss
Redirect p5uhs30_1247/Lines.dss
Redirect p5uhs30_1247/p5uhs30_1247--p5udt30417/Lines.dss
Redirect p5uhs30_1247/p5uhs30_1247--p5udt32093/Lines.dss
Redirect subtransmission/Lines.dss
Redirect p5uhs0_1247/p5uhs0_1247--p5udt3610/Capacitors.dss
Redirect p5uhs1_1247/p5uhs1_1247--p5udt6125/Capacitors.dss
Redirect p5uhs1_1247/p5uhs1_1247--p5udt4788/Capacitors.dss
Redirect p5uhs1_1247/p5uhs1_1247--p5udt4629/Capacitors.dss
Redirect p5uhs2_1247/p5uhs2_1247--p5udt2335/Capacitors.dss
Redirect p5uhs2_1247/p5uhs2_1247--p5udt6874/Capacitors.dss
Redirect p5uhs3_1247/p5uhs3_1247--p5udt6366/Capacitors.dss
Redirect p5uhs3_1247/p5uhs3_1247--p5udt2481/Capacitors.dss
Redirect p5uhs3_1247/p5uhs3_1247--p5udt7358/Capacitors.dss
Redirect p5uhs3_1247/p5uhs3_1247--p5udt7453/Capacitors.dss
Redirect p5uhs3_1247/p5uhs3_1247--p5udt6002/Capacitors.dss
Redirect p5uhs4_1247/p5uhs4_1247--p5udt4324/Capacitors.dss
Redirect p5uhs4_1247/p5uhs4_1247--p5udt2507/Capacitors.dss
Redirect p5uhs5_1247/p5uhs5_1247--p5udt4497/Capacitors.dss
Redirect p5uhs5_1247/p5uhs5_1247--p5udt2369/Capacitors.dss
Redirect p5uhs5_1247/p5uhs5_1247--p5udt4880/Capacitors.dss
Redirect p5uhs5_1247/p5uhs5_1247--p5udt3577/Capacitors.dss
Redirect p5uhs6_1247/p5uhs6_1247--p5udt7214/Capacitors.dss
Redirect p5uhs6_1247/p5uhs6_1247--p5udt8728/Capacitors.dss
Redirect p5uhs6_1247/p5uhs6_1247--p5udt3745/Capacitors.dss
Redirect p5uhs7_1247/p5uhs7_1247--p5udt2290/Capacitors.dss
Redirect p5uhs7_1247/p5uhs7_1247--p5udt1899/Capacitors.dss
Redirect p5uhs7_1247/p5uhs7_1247--p5udt2039/Capacitors.dss
Redirect p5uhs8_1247/p5uhs8_1247--p5udt8308/Capacitors.dss
Redirect p5uhs8_1247/p5uhs8_1247--p5udt24709/Capacitors.dss
Redirect p5uhs8_1247/p5uhs8_1247--p5udt31669/Capacitors.dss
Redirect p5uhs9_1247/p5uhs9_1247--p5udt20856/Capacitors.dss
Redirect p5uhs9_1247/p5uhs9_1247--p5udt22915/Capacitors.dss
Redirect p5uhs10_1247/p5uhs10_1247--p5udt14571/Capacitors.dss
Redirect p5uhs11_1247/p5uhs11_1247--p5udt24796/Capacitors.dss
Redirect p5uhs11_1247/p5uhs11_1247--p5udt31727/Capacitors.dss
Redirect p5uhs11_1247/p5uhs11_1247--p5udt19826/Capacitors.dss
Redirect p5uhs11_1247/p5uhs11_1247--p5udt27144/Capacitors.dss
Redirect p5uhs12_1247/p5uhs12_1247--p5udt23739/Capacitors.dss
Redirect p5uhs12_1247/p5uhs12_1247--p5udt10697/Capacitors.dss
Redirect p5uhs12_1247/p5uhs12_1247--p5udt26455/Capacitors.dss
Redirect p5uhs13_1247/p5uhs13_1247--p5udt27754/Capacitors.dss
Redirect p5uhs14_1247/p5uhs14_1247--p5udt30754/Capacitors.dss
Redirect p5uhs14_1247/p5uhs14_1247--p5udt12053/Capacitors.dss
Redirect p5uhs15_1247/p5uhs15_1247--p5udt31571/Capacitors.dss
Redirect p5uhs15_1247/p5uhs15_1247--p5udt17500/Capacitors.dss
Redirect p5uhs16_1247/p5uhs16_1247--p5udt385/Capacitors.dss
Redirect p5uhs16_1247/p5uhs16_1247--p5udt746/Capacitors.dss
Redirect p5uhs17_1247/p5uhs17_1247--p5udt28507/Capacitors.dss
Redirect p5uhs17_1247/p5uhs17_1247--p5udt20156/Capacitors.dss
Redirect p5uhs18_1247/p5uhs18_1247--p5udt13853/Capacitors.dss
Redirect p5uhs18_1247/p5uhs18_1247--p5udt9682/Capacitors.dss
Redirect p5uhs18_1247/p5uhs18_1247--p5udt29300/Capacitors.dss
Redirect p5uhs19_1247/p5uhs19_1247--p5udt30268/Capacitors.dss
Redirect p5uhs19_1247/p5uhs19_1247--p5udt17094/Capacitors.dss
Redirect p5uhs19_1247/p5uhs19_1247--p5udt8885/Capacitors.dss
Redirect p5uhs19_1247/p5uhs19_1247--p5udt22111/Capacitors.dss
Redirect p5uhs20_1247/p5uhs20_1247--p5udt22271/Capacitors.dss
Redirect p5uhs20_1247/p5uhs20_1247--p5udt30630/Capacitors.dss
Redirect p5uhs21_1247/p5uhs21_1247--p5udt30121/Capacitors.dss
Redirect p5uhs21_1247/p5uhs21_1247--p5udt24017/Capacitors.dss
Redirect p5uhs21_1247/p5uhs21_1247--p5udt27230/Capacitors.dss
Redirect p5uhs21_1247/p5uhs21_1247--p5udt26112/Capacitors.dss
Redirect p5uhs22_1247/p5uhs22_1247--p5udt18713/Capacitors.dss
Redirect p5uhs22_1247/p5uhs22_1247--p5udt12343/Capacitors.dss
Redirect p5uhs22_1247/p5uhs22_1247--p5udt24944/Capacitors.dss
Redirect p5uhs23_1247/p5uhs23_1247--p5udt18043/Capacitors.dss
Redirect p5uhs23_1247/p5uhs23_1247--p5udt23560/Capacitors.dss
Redirect p5uhs24_1247/p5uhs24_1247--p5udt29597/Capacitors.dss
Redirect p5uhs24_1247/p5uhs24_1247--p5udt18206/Capacitors.dss
Redirect p5uhs24_1247/p5uhs24_1247--p5udt16214/Capacitors.dss
Redirect p5uhs25_1247/p5uhs25_1247--p5udt31077/Capacitors.dss
Redirect p5uhs25_1247/p5uhs25_1247--p5udt33477/Capacitors.dss
Redirect p5uhs26_1247/p5uhs26_1247--p5udt22654/Capacitors.dss
Redirect p5uhs26_1247/p5uhs26_1247--p5udt12371/Capacitors.dss
Redirect p5uhs27_1247/p5uhs27_1247--p5udt16841/Capacitors.dss
Redirect p5uhs27_1247/p5uhs27_1247--p5udt23432/Capacitors.dss
Redirect p5uhs28_1247/p5uhs28_1247--p5udt9102/Capacitors.dss
Redirect p5uhs28_1247/p5uhs28_1247--p5udt12928/Capacitors.dss
Redirect p5uhs29_1247/p5uhs29_1247--p5udt31103/Capacitors.dss
Redirect p5uhs30_1247/p5uhs30_1247--p5udt30417/Capacitors.dss

Set Voltagebases=[0.2080002494301389, 0.48, 7.199560000000001, 12.47, 69.0, 230.0]

Calcvoltagebases

Buscoords Buscoords.dss

Solve